	192

   H	        5.673140	        9.528940	        6.247180
   H	        5.823640	        8.732340	        4.886350
   H	        2.017790	        8.399910	        7.967680
   H	        1.199660	        9.036360	        6.769910
   H	        9.241910	        8.776880	        9.838540
   H	       10.108600	       10.088600	       10.031300
   H	        1.454940	       11.201200	        7.067030
   H	        3.030610	       11.224100	        6.906410
   H	        5.644420	        6.394370	       10.683700
   H	        4.997590	        7.838020	       10.764600
   H	       11.225100	        3.321480	        7.508720
   H	       10.544200	        4.633480	        8.078070
   H	       10.568500	       10.990300	        5.450560
   H	       11.236100	       10.607700	        6.835120
   H	        5.108500	        7.338530	        1.201410
   H	        5.712460	        8.802800	        1.187330
   H	        6.054590	        3.204390	        6.116180
   H	        6.566180	        3.094360	        7.611250
   H	        4.515870	        3.150910	        9.516790
   H	        3.424900	        2.466190	        8.594840
   H	        4.235760	        1.199820	        4.693590
   H	        4.972490	        2.546720	        4.303540
   H	        1.296480	        8.715280	       10.177500
   H	        1.199630	       10.182300	        9.588080
   H	        7.058710	       10.645600	       11.226200
   H	        7.197630	        9.187350	       10.623500
   H	        7.992620	        3.677610	        1.617650
   H	        7.064610	        3.833150	        2.891870
   H	        6.326610	        6.224610	        3.674270
   H	        7.237270	        5.967980	        2.403880
   H	        8.859490	        2.606770	       11.112400
   H	       10.062900	        2.313820	       10.125000
   H	        3.609450	        8.474190	        5.591580
   H	        2.775380	        9.781960	        5.270430
   H	        9.065190	        6.572440	        6.915380
   H	        8.552520	        7.783440	        7.798380
   H	        9.796270	        9.077180	        6.207230
   H	        8.694550	        9.121110	        5.069980
   H	        4.621280	        1.209810	       10.542400
   H	        3.245230	        1.785400	       11.075600
   H	        3.020490	        5.485400	        9.044810
   H	        3.551040	        4.981890	       10.449800
   H	       11.242800	        7.469980	        5.803920
   H	       11.253000	        6.381690	        6.954830
   H	        4.649850	        5.769370	        6.907020
   H	        4.447260	        4.437630	        7.740380
   H	        6.037860	       11.062500	        1.827690
   H	        7.612730	       11.225700	        1.874800
   H	        3.841230	        9.608890	        9.695600
   H	        3.978340	        9.948630	       11.236600
   H	        8.279440	        8.862440	        2.926470
   H	        6.785430	        9.380820	        3.017520
   H	        4.201370	        8.446330	        7.708520
   H	        3.787480	        7.543430	        8.942430
   H	        3.178230	        1.922080	        6.481450
   H	        1.804100	        2.018030	        5.699400
   H	        8.066660	        1.201850	        2.742990
   H	        7.558150	        1.549240	        1.283600
   H	        5.432190	        4.162310	       11.238400
   H	        6.795080	        3.355180	       11.226700
   H	        8.061130	        1.368680	        7.669770
   H	        9.609020	        1.546600	        7.384400
   H	        9.512230	        7.178850	        4.483290
   H	        9.235200	        6.540920	        3.060140
   H	        2.047820	        1.677590	        1.202760
   H	        1.946100	        2.692790	        2.414410
   H	        9.276270	        3.530490	        6.521750
   H	        8.702980	        3.445870	        7.995940
   H	        7.723290	       10.983600	        7.979560
   H	        9.237430	       11.150600	        7.545360
   H	       11.244700	        8.287220	        3.778300
   H	       11.229300	        7.332960	        2.514090
   H	        2.699910	        6.970990	       10.757500
   H	        1.197060	        6.803420	       11.229100
   H	        6.755290	        4.760530	        9.035100
   H	        7.023120	        5.332300	        7.582380
   H	        6.056520	        7.444680	        6.813020
   H	        7.382300	        7.619890	        5.964100
   H	        8.791040	        4.618870	        9.851680
   H	        8.621240	        5.923200	        8.969100
   H	       11.158100	        8.571100	       11.226200
   H	       11.219600	        7.003350	       11.008400
   H	        9.126310	        3.220520	        4.350950
   H	       10.132900	        4.250800	        3.691870
   H	       10.925200	        7.590420	        8.918500
   H	       10.700000	        8.988030	        8.207860
   H	        8.809260	        5.223950	        5.200230
   H	        7.355220	        4.615380	        5.043760
   H	        1.197610	        6.162210	        1.675770
   H	        2.674690	        6.469260	        1.193060
   H	        7.111100	       11.227300	        4.341820
   H	        7.009020	       11.246900	        5.922410
   H	        2.189990	        6.693030	        6.589490
   H	        1.194160	        5.549410	        6.131760
   H	        4.493440	        4.603860	        4.912820
   H	        3.160570	        4.635640	        5.768110
   H	        8.601440	        7.535900	        1.203790
   H	        9.631500	        8.739220	        1.196020
   H	        1.567800	        7.917830	        3.414130
   H	        1.188810	        7.754830	        4.943460
   H	        4.648100	        2.736640	        2.137160
   H	        5.908270	        3.009470	        1.217050
   H	        5.816640	       11.223300	        9.049420
   H	        4.846710	       10.589600	        7.969240
   H	        4.646180	        8.395970	        3.065690
   H	        3.307870	        9.230370	        3.213180
   H	        9.722520	       11.237200	        2.474970
   H	       10.006800	       10.086400	        3.525690
   H	        9.257800	        5.424980	        1.198640
   H	       10.706900	        5.149200	        1.775720
   H	        7.147670	        2.270410	        4.430010
   H	        6.371430	        1.184590	        5.282940
   H	        7.732680	        5.974470	       11.218200
   H	        8.330020	        7.438110	       11.318300
   H	        1.448050	        2.897260	        9.863660
   H	        1.197950	        4.267520	        9.109420
   H	       11.223300	        3.817740	       11.232800
   H	       11.264600	        4.979000	       10.156400
   H	        1.183740	       10.921600	        3.221090
   H	        2.654150	       11.271600	        3.694880
   H	        6.405620	        2.032570	        9.529980
   H	        5.426640	        1.410430	        8.451290
   H	        2.730640	        8.667410	        1.168090
   H	        1.190830	        8.317570	        1.293270
   H	        2.938020	        5.791190	        3.913800
   H	        4.148500	        6.705220	        4.370240
   H	        6.298850	        7.657020	        9.005920
   H	        6.874260	        9.027620	        8.458710
   O	        5.773230	        9.614670	        5.286170
   O	        1.285960	        8.992540	        7.735070
   O	        9.254420	        9.740800	        9.730840
   O	        2.297470	       10.970200	        7.488560
   O	        5.088830	        6.984580	       11.216500
   O	       10.944200	        3.782080	        8.314850
   O	       11.226100	       11.255000	        6.112760
   O	        5.928150	        7.857240	        1.204740
   O	        6.737610	        2.829530	        6.693980
   O	        3.568180	        3.097930	        9.316830
   O	        4.169290	        2.017890	        4.176640
   O	        1.697260	        9.598600	       10.181800
   O	        7.147390	       10.131800	       10.408200
   O	        7.836390	        3.373780	        2.525490
   O	        6.391590	        6.329510	        2.712150
   O	        9.374630	        1.910020	       10.676500
   O	        3.530840	        9.425580	        5.763570
   O	        9.338190	        7.339300	        7.442910
   O	        8.953490	        9.473380	        5.935860
   O	        3.658860	        1.200250	       10.421800
   O	        3.795090	        5.432580	        9.626280
   O	       11.067900	        6.539710	        6.015860
   O	        4.952340	        4.855370	        7.025330
   O	        6.837510	       11.187300	        1.293020
   O	        4.443720	        9.927460	       10.385800
   O	        7.493130	        9.106450	        2.413550
   O	        4.280090	        7.565520	        8.107110
   O	        2.526560	        2.528930	        6.096790
   O	        7.285280	        1.273760	        2.172730
   O	        6.393360	        4.232570	       11.128300
   O	        8.953950	        1.179380	        7.998330
   O	        8.825070	        6.950800	        3.837770
   O	        2.532170	        2.330910	        1.731420
   O	        8.615400	        3.886350	        7.136170
   O	        8.606820	       11.253600	        8.275180
   O	       10.793800	        8.085950	        2.943340
   O	        1.911930	        6.407630	       10.706500
   O	        6.542360	        5.473590	        8.412920
   O	        6.678140	        7.001570	        6.214570
   O	        9.195600	        5.464360	        9.601920
   O	       10.635800	        7.754150	       11.199200
   O	       10.058700	        3.401050	        4.153740
   O	       11.264500	        8.494070	        8.822800
   O	        7.899760	        5.249080	        5.536510
   O	        2.103470	        6.349380	        1.967810
   O	        7.569360	       11.007000	        5.167870
   O	        1.300410	        6.324170	        6.705650
   O	        3.681130	        4.120980	        5.131680
   O	        9.541020	        7.773930	        1.165870
   O	        1.892170	        8.005020	        4.324120
   O	        4.986260	        2.708350	        1.228450
   O	        4.917160	       11.238700	        8.686660
   O	        4.254010	        9.206840	        3.425680
   O	       10.146900	       10.375500	        2.610450
   O	        9.954130	        4.758170	        1.305310
   O	        7.156230	        1.350490	        4.737530
   O	        7.789920	        6.838160	       10.780400
   O	        1.587640	        3.856590	        9.896920
   O	       10.754200	        4.592160	       10.884900
   O	        1.726120	       11.212500	        3.970840
   O	        6.253140	        1.276960	        8.941170
   O	        1.874610	        8.971000	        1.508620
   O	        3.450760	        6.588120	        3.706670
   O	        6.091120	        8.586870	        8.823870
